%file: test.ned
import smile.RadioNode;
import smile.MeasurementsLogger;
import smile.IdealClock;
import smile.IdealRangingNicDriver;
import smile.fakes.FakeIdealApplication;
import inet.physicallayer.idealradio.IdealRadioMedium;

network Test
{
    submodules:
        radioMedium: IdealRadioMedium;
        measurementsLogger: MeasurementsLogger    {
            directoryPath = ".";
            fileName = "tmp";
        }

        TestNode1: RadioNode {
            mobilityType = "LinearMobility";
            applicationType = "FakeIdealApplication";
            nicDriverType = "IdealRangingNicDriver";
            nicType = "IdealWirelessNic";
            clockType = "IdealClock";
            
            nic.mac.address = "DE-AD-BE-EF-10-01";
            nic.interfaceTableModule = default(absPath(".interfaceTable"));
            application.remoteMacAddress = "DE-AD-BE-EF-10-02";
        }
        
        TestNode2: RadioNode {
            mobilityType = "LinearMobility";
            applicationType = "FakeIdealApplication";
            nicDriverType = "IdealRangingNicDriver";
            nicType = "IdealWirelessNic";
            clockType = "IdealClock";
            
            nic.mac.address = "DE-AD-BE-EF-10-02";
            nic.interfaceTableModule = default(absPath(".interfaceTable"));
            application.initiator = true;
            application.remoteMacAddress = "DE-AD-BE-EF-10-01";
        }
}

%inifile: omnet.ini
[General]
cmdenv-express-mode = false
cmdenv-log-prefix = "[%l] [%t] %M: "
**.cmdenv-log-level = debug

network = Test
sim-time-limit = 5s
**.bitrate = 1Mbps
**.communicationRange = 1m
**.mobility.initFromDisplayString = false
**.mobility.initialX = 10m
**.mobility.initialY = 10m
**.mobility.initialZ = 10m

%contains: stdout
[DETAIL] [0.005] Test.TestNode2.application: Sending frame (inet::IdealMacFrame)"Test frame no. 0"
%contains: stdout
[DETAIL] [0.00501] Test.TestNode2.nic.radio: Transmission of frame (inet::IdealMacFrame)"Test frame no. 0" started at 0.005
%contains: stdout
[DETAIL] [0.00501] Test.TestNode1.nicDriver: Reception of frame (inet::IdealMacFrame)"Test frame no. 0" started at 0.005
%contains: stdout
[DETAIL] [0.00501] Test.TestNode1.application: Received frame (inet::IdealMacFrame)"Test frame no. 0"

%contains: stdout
[DETAIL] [0.01] Test.TestNode2.application: Sending frame (inet::IdealMacFrame)"Test frame no. 1"
%contains: stdout
[DETAIL] [0.01001] Test.TestNode2.nic.radio: Transmission of frame (inet::IdealMacFrame)"Test frame no. 1" started at 0.01
%contains: stdout
[DETAIL] [0.01001] Test.TestNode1.nicDriver: Reception of frame (inet::IdealMacFrame)"Test frame no. 1" started at 0.01
%contains: stdout
[DETAIL] [0.01001] Test.TestNode1.application: Received frame (inet::IdealMacFrame)"Test frame no. 1"

%contains: stdout
[DETAIL] [0.015] Test.TestNode2.application: Sending frame (inet::IdealMacFrame)"Test frame no. 2"
%contains: stdout
[DETAIL] [0.01501] Test.TestNode2.nic.radio: Transmission of frame (inet::IdealMacFrame)"Test frame no. 2" started at 0.015
%contains: stdout
[DETAIL] [0.01501] Test.TestNode1.nicDriver: Reception of frame (inet::IdealMacFrame)"Test frame no. 2" started at 0.015
%contains: stdout
[DETAIL] [0.01501] Test.TestNode1.application: Received frame (inet::IdealMacFrame)"Test frame no. 2"