%file: test.ned
import smile.IdealRangingWirelessNic;
import smile.RadioNode;
import smile.MeasurementsLogger;
import inet.physicallayer.idealradio.IdealRadioMedium;

network Test
{
    submodules:
        radioMedium: IdealRadioMedium;
        measurementsLogger: MeasurementsLogger    {
            directoryPath = ".";
            fileName = "tmp";
        }

        TestNode1: RadioNode {
            nicType = "IdealRangingWirelessNic";
            mobilityType = "LinearMobility";
            applicationType = "FakeIdealApplication";
            clockType = "IdealClock";
            
            nic.nic.mac.address = "DE-AD-BE-EF-10-01";
            nic.nic.interfaceTableModule = default(absPath(".interfaceTable"));
        }
        
        TestNode2: RadioNode {
            nicType = "IdealRangingWirelessNic";
            mobilityType = "LinearMobility";
            applicationType = "FakeIdealApplication";
            clockType = "IdealClock";
            
            nic.nic.mac.address = "DE-AD-BE-EF-10-02";
            nic.nic.interfaceTableModule = default(absPath(".interfaceTable"));
            application.initiator = true;
        }
}

%inifile: omnet.ini
[General]
cmdenv-express-mode = false
**.cmdenv-log-level = detail

network = Test
sim-time-limit = 5s
**.bitrate = 1Mbps
**.communicationRange = 1m
**.mobility.initFromDisplayString = false
**.mobility.initialX = 10m
**.mobility.initialY = 10m
**.mobility.initialZ = 10m

%contains: stdout
TEST: Sending MAC frame to 00-00-00-00-00-01

%contains: stdout
TEST: Sending MAC frame to 00-00-00-00-00-02

%contains: stdout
TEST: Sending MAC frame to 00-00-00-00-00-03

%contains: stdout
TEST: Sending MAC frame to 00-00-00-00-00-04

%contains: stdout
TEST: Received MAC frame from DE-AD-BE-EF-10-01 addressed to 00-00-00-00-00-01

%contains: stdout
TEST: Received MAC frame from DE-AD-BE-EF-10-01 addressed to 00-00-00-00-00-02

%contains: stdout
TEST: Received MAC frame from DE-AD-BE-EF-10-01 addressed to 00-00-00-00-00-03

%contains: stdout
TEST: Received MAC frame from DE-AD-BE-EF-10-01 addressed to 00-00-00-00-00-04