%includes:
#include "../../src/ClockDecorator.h"

%module: LogGenerator
using namespace inet;
using namespace smile;

class TestModule : public ClockDecorator<cSimpleModule>
{
  public:
    TestModule() = default;
    void initialize(int stage) override;
    int numInitStages() const override;
    void handleSelfMessage(omnetpp::cMessage* message) override;
};

Define_Module(TestModule);

void TestModule::initialize(int stage)
{
  ClockDecorator<cSimpleModule>::initialize(stage);
  if(stage == INITSTAGE_APPLICATION_LAYER)	{	
    scheduleAt(SimTime{1, SIMTIME_PS}, new cMessage{"1ps"});
    scheduleAt(SimTime{1, SIMTIME_NS}, new cMessage{"1ns"});
    scheduleAt(SimTime{1, SIMTIME_US}, new cMessage{"1us"});
    scheduleAt(SimTime{1, SIMTIME_MS}, new cMessage{"1ms"});
    scheduleAt(SimTime{1, SIMTIME_S}, new cMessage{"1s"});
    EV_INFO << "Self messages were sent" << endl;
  }
}

int TestModule::numInitStages() const
{
  return INITSTAGE_APPLICATION_LAYER + 1;
}

void TestModule::handleSelfMessage(omnetpp::cMessage* message)
{
  EV_INFO << "Message \"" << message << "\" received at " << simTime() << endl;
  delete message;
}

%file: test.ned
import smile.ClockDecorator;
import smile.LiuYangClock;

simple TestModule like ClockDecorator
{
	parameters:
		string clockModule = "^.clock";
}

network Test
{
    submodules:
        testModule: TestModule;
        clock: LiuYangClock;
}

%inifile: omnet.ini
[General]
sim-time-limit = 15s
cmdenv-express-mode = false
check-signals = false
cmdenv-log-prefix = "[%l] %N: "
**.cmdenv-log-level = debug
network = Test

**.clock.accuracy = 10

%exitcode: 0

%subst: /(?:\*\*.*\n)//

%contains: stdout
Running simulation...
[INFO] testModule: Message "(omnetpp::cMessage)1ps" received at 0.000000000001
[INFO] testModule: Message "(omnetpp::cMessage)1ns" received at 0.000000001
[INFO] testModule: Message "(omnetpp::cMessage)1us" received at 0.000001
[INFO] testModule: Message "(omnetpp::cMessage)1ms" received at 0.001000000005
[INFO] testModule: Message "(omnetpp::cMessage)1s" received at 1.000005
