%network: smile.testers.clock_tester_network

%inifile: clock_tester.ini
sim-time-limit = 2s
**.clockType = "smile.LiuYangClock"

**.clockTester.min_drift = 0
**.clockTester.max_drift = 0

**.clock.constant_drift_range = 0