%network: smile.testers.clock_tester_network

%inifile: clock_tester.ini
sim-time-limit = 2s
**.clockType = "smile.LiuYangClock"

**.clockTester.min_drift = 10e-6
**.clockTester.max_drift = 20e-6

**.clock.constant_drift_range = uniform(10e-6, 20e-6)