%description:
Test current position handling in RadioNode

%file: test.ned
import smile.RadioNode;
import smile.MeasurementsLogger;
import inet.physicallayer.idealradio.IdealRadioMedium;

network Test
{
    submodules:
        radioMedium: IdealRadioMedium;
        measurementsLogger: MeasurementsLogger    {
            directoryPath = ".";
            fileName = "tmp";
        }

        TestNode: RadioNode {
            nicType = "IdealWirelessNic";
            mobilityType = "LinearMobility";
            applicationType = "MockApplication";
            clockType = "IdealClock";
        }
}

%inifile: omnet.ini
[General]
cmdenv-express-mode = false
**.cmdenv-log-level = detail

network = Test
sim-time-limit = 1s
**.bitrate = 1bps
**.communicationRange = 1m
**.mobility.initFromDisplayString = false
**.mobility.initialX = 10m
**.mobility.initialY = 10m
**.mobility.speed = 1mps
**.mobility.angle = 0deg

%contains: stdout
Current position: (10.1, 10, 0)
%contains: stdout
Current position: (10.2, 10, 0)
%contains: stdout
Current position: (10.3, 10, 0)
%contains: stdout
Current position: (10.4, 10, 0)
%contains: stdout
Current position: (10.5, 10, 0)
%contains: stdout
Current position: (10.6, 10, 0)
%contains: stdout
Current position: (10.7, 10, 0)
%contains: stdout
Current position: (10.8, 10, 0)
%contains: stdout
Current position: (10.9, 10, 0)
%contains: stdout
Current position: (11, 10, 0)