%network: smile.testers.clock_tester_network

%inifile: clock_tester.ini
sim-time-limit = 2s
**.clockType = "smile.steinhauser_clock.SteinhauserBoundedDriftClock"

**.clockTester.min_drift = 0
**.clockTester.max_drift = 21e-6

**.clock.constant_drift_range = uniform(10e-6, 20e-6)

%exitcode: 0
