[General]
sim-time-limit = 1s
**.statistic-recording = false
**.scalar-recording = false
**.vector-recording = false

[Config simulation_area]
network = stationary_mobiles_grid

*.visualizer.mediumVisualizer.displaySignals = true
**.bitrate = 1Mbps
**.displayCommunicationRange = true
**.communicationRange = 110m

[Config four_anchors_in_corners]
extends = simulation_area
**.anchorsNumber = 4
**.anchorNodes[*].mobilityType = "LinearMobility"
**.anchorNodes[*].**.initFromDisplayString = false

**.anchorNodes[0].**.initialX = 0m
**.anchorNodes[0].**.initialY = 0m
**.anchorNodes[0].**.initialZ = 0m

**.anchorNodes[1].**.initialX = 75m
**.anchorNodes[1].**.initialY = 0m
**.anchorNodes[1].**.initialZ = 0m

**.anchorNodes[2].**.initialX = 75m
**.anchorNodes[2].**.initialY = 75m
**.anchorNodes[2].**.initialZ = 0m

**.anchorNodes[3].**.initialX = 0m
**.anchorNodes[3].**.initialY = 75m
**.anchorNodes[3].**.initialZ = 0m

[Config single_stationary_mobile]
extends = simulation_area
**.mobilesNumber = 1
**.mobileNodes[*].mobility.numHosts = 1 # Equals to **.mobilesNumber
**.mobileNodes[*].mobilityType = "LinearMobility"
**.mobileNodes[*].**.initFromDisplayString = false

**.mobileNodes[0].**.initialX = 37.5m
**.mobileNodes[0].**.initialY = 37.5m
**.mobileNodes[0].**.initialZ = 0m

[Config multiple_stationary_mobiles_iterative]
extends = simulation_area
**.mobilesNumber = 1
**.mobileNodes[*].mobility.numHosts = 1 # Equals to **.mobilesNumber
**.mobileNodes[*].mobilityType = "LinearMobility"
**.mobileNodes[*].**.initFromDisplayString = false

**.mobileNodes[0].**.initialX = ${ 1.5..73.5 step 3}m
**.mobileNodes[0].**.initialY = ${ 1.5..73.5 step 3}m
**.mobileNodes[0].**.initialZ = 0m

[Config multiple_stationary_mobiles_simultaneous]
extends = simulation_area
**.mobilesNumber = 625
**.mobileNodes[*].mobility.numHosts = 625 # Equals to **.mobilesNumber
**.mobileNodes[*].mobilityType = "StaticGridMobility"
**.mobileNodes[*].**.initFromDisplayString = false

**.mobileNodes[*].mobility.constraintAreaMinX = 0m
**.mobileNodes[*].mobility.constraintAreaMinY = 0m
**.mobileNodes[*].mobility.constraintAreaMaxX = 75m
**.mobileNodes[*].mobility.constraintAreaMaxY = 75m
